.subckt ctl reset oper[5:0] z pcsel[2:0] wasel asel ra2sel bsel alufn[4:0] wdsel[1:0] werf moe wr
//... your control ROM and other circuitry here ...
Gctl memory vdd gnd gnd oper[5:0]    // one read port
+ pcselx[2:0] wasel asel ra2sel bsel alufn[4:0] wdsel[1:0] werf moe xwr
+ width=17 nlocations=64 contents=(
+  0b11100000000000100         // opcode=0b000000
    +  0b11100000000000100         // opcode=0b000001
    +  0b11100000000000100         // opcode=0b000010
    +  0b11100000000000100         // opcode=0b000011
    +  0b11100000000000100         // opcode=0b000100
    +  0b11100000000000100         // opcode=0b000101
    +  0b11100000000000100         // opcode=0b000110
    +  0b11100000000000100         // opcode=0b000111
    +  0b11100000000000100         // opcode=0b001000
    +  0b11100000000000100         // opcode=0b001001
    +  0b11100000000000100         // opcode=0b001010
    +  0b11100000000000100         // opcode=0b001011
    +  0b11100000000000100         // opcode=0b001100
    +  0b11100000000000100         // opcode=0b001101
    +  0b11100000000000100         // opcode=0b001110
    +  0b11100000000000100         // opcode=0b001111
    +  0b11100000000000100         // opcode=0b010000
    +  0b11100000000000100         // opcode=0b010001
    +  0b11100000000000100         // opcode=0b010010
    +  0b11100000000000100         // opcode=0b010011
    +  0b11100000000000100         // opcode=0b010100
    +  0b11100000000000100         // opcode=0b010101
    +  0b11100000000000100         // opcode=0b010110
    +  0b11100000000000100         // opcode=0b010111
    +  0b00000010000010110         // opcode=0b011000 ld
    +  0b00000110000000001         // opcode=0b011001 st
    +  0b11100000000000100         // opcode=0b011010
    +  0b01000000000000100         // opcode=0b011011 jmp
    +  0b00100000000000100         // opcode=0b011100 beq
    +  0b00100000000000100         // opcode=0b011101 bne
    +  0b11100000000000100         // opcode=0b011110
    +  0b00001001101010110         // opcode=0b011111 ldr
    +  0b00000000000001100         // opcode=0b100000 add
    +  0b00000000000101100         // opcode=0b100001 sub
    +  0b11100000000000100         // opcode=0b100010
    +  0b11100000000000100         // opcode=0b100011
    +  0b00000000010101100         // opcode=0b100100 cmpeq
    +  0b00000000011101100         // opcode=0b100101 cmplt
    +  0b00000000110101100         // opcode=0b100110 cmple
    +  0b11100000000000100         // opcode=0b100111
    +  0b00000001100001100         // opcode=0b101000 and
    +  0b00000001111001100         // opcode=0b101001 or
    +  0b00000001011001100         // opcode=0b101010 xor
    +  0b00000001100101100         // opcode=0b101011 xnor
    +  0b00000000100001100         // opcode=0b101100 shl
    +  0b00000000100101100         // opcode=0b101101 shr
    +  0b00000000101101100         // opcode=0b101110 sra
    +  0b11100000000000100         // opcode=0b101111
    +  0b00000010000001100         // opcode=0b110000 addc
    +  0b00000010000101100         // opcode=0b110001 subc
    +  0b11100000000000100         // opcode=0b110010
    +  0b11100000000000100         // opcode=0b110011
    +  0b00000010010101100         // opcode=0b110100 cmpeqc
    +  0b00000010011101100         // opcode=0b110101 cmpltc
    +  0b00000010110101100         // opcode=0b110110 cmplec
    +  0b11100000000000100         // opcode=0b110111
    +  0b00000011100001100         // opcode=0b111000 andc
    +  0b00000011111001100         // opcode=0b111001 orc
    +  0b00000011011001100         // opcode=0b111010 xorc
    +  0b00000011100101100         // opcode=0b111011 xnorc
    +  0b00000010100001100         // opcode=0b111100 shlc
    +  0b00000010100101100         // opcode=0b111101 shrc
    +  0b00000010101101100         // opcode=0b111110 srac
    +  0b11100000000000100         // opcode=0b111111
+ )
